Input Parameters:
   integrator                     = md
   tinit                          = 0
   dt                             = 0.002
   nsteps                         = 3000000
   init-step                      = 0
   simulation-part                = 1
   comm-mode                      = Linear
   nstcomm                        = 100
   bd-fric                        = 0
   ld-seed                        = -910356455
   emtol                          = 10
   emstep                         = 0.01
   niter                          = 20
   fcstep                         = 0
   nstcgsteep                     = 1000
   nbfgscorr                      = 10
   rtpi                           = 0.05
   nstxout                        = 0
   nstvout                        = 0
   nstfout                        = 0
   nstlog                         = 10000
   nstcalcenergy                  = 100
   nstenergy                      = 10000
   nstxout-compressed             = 10000
   compressed-x-precision         = 1000
   cutoff-scheme                  = Verlet
   nstlist                        = 10
   ns-type                        = Grid
   pbc                            = xyz
   periodic-molecules             = false
   verlet-buffer-tolerance        = 0.005
   rlist                          = 1.2
   coulombtype                    = PME
   coulomb-modifier               = Potential-shift
   rcoulomb-switch                = 0
   rcoulomb                       = 1.2
   epsilon-r                      = 1
   epsilon-rf                     = inf
   vdw-type                       = Cut-off
   vdw-modifier                   = None
   rvdw-switch                    = 0
   rvdw                           = 1.2
   DispCorr                       = No
   table-extension                = 1
   fourierspacing                 = 0.16
   fourier-nx                     = 24
   fourier-ny                     = 24
   fourier-nz                     = 24
   pme-order                      = 4
   ewald-rtol                     = 1e-05
   ewald-rtol-lj                  = 0.001
   lj-pme-comb-rule               = Geometric
   ewald-geometry                 = 0
   epsilon-surface                = 0
   tcoupl                         = V-rescale
   nsttcouple                     = 10
   nh-chain-length                = 0
   print-nose-hoover-chain-variables = false
   pcoupl                         = Parrinello-Rahman
   pcoupltype                     = Isotropic
   nstpcouple                     = 10
   tau-p                          = 10
   compressibility (3x3):
      compressibility[    0]={ 1.00000e-05,  0.00000e+00,  0.00000e+00}
      compressibility[    1]={ 0.00000e+00,  1.00000e-05,  0.00000e+00}
      compressibility[    2]={ 0.00000e+00,  0.00000e+00,  1.00000e-05}
   ref-p (3x3):
      ref-p[    0]={ 1.00000e+00,  0.00000e+00,  0.00000e+00}
      ref-p[    1]={ 0.00000e+00,  1.00000e+00,  0.00000e+00}
      ref-p[    2]={ 0.00000e+00,  0.00000e+00,  1.00000e+00}
   refcoord-scaling               = No
   posres-com (3):
      posres-com[0]= 0.00000e+00
      posres-com[1]= 0.00000e+00
      posres-com[2]= 0.00000e+00
   posres-comB (3):
      posres-comB[0]= 0.00000e+00
      posres-comB[1]= 0.00000e+00
      posres-comB[2]= 0.00000e+00
   QMMM                           = false
   QMconstraints                  = 0
   QMMMscheme                     = 0
   MMChargeScaleFactor            = 1
qm-opts:
   ngQM                           = 0
   constraint-algorithm           = Lincs
   continuation                   = false
   Shake-SOR                      = false
   shake-tol                      = 0.0001
   lincs-order                    = 4
   lincs-iter                     = 1
   lincs-warnangle                = 30
   nwall                          = 0
   wall-type                      = 9-3
   wall-r-linpot                  = -1
   wall-atomtype[0]               = -1
   wall-atomtype[1]               = -1
   wall-density[0]                = 0
   wall-density[1]                = 0
   wall-ewald-zfac                = 3
   pull                           = false
   awh                            = false
   rotation                       = false
   interactiveMD                  = false
   disre                          = No
   disre-weighting                = Conservative
   disre-mixed                    = false
   dr-fc                          = 1000
   dr-tau                         = 0
   nstdisreout                    = 100
   orire-fc                       = 0
   orire-tau                      = 0
   nstorireout                    = 100
   free-energy                    = no
   cos-acceleration               = 0
   deform (3x3):
      deform[    0]={ 0.00000e+00,  0.00000e+00,  0.00000e+00}
      deform[    1]={ 0.00000e+00,  0.00000e+00,  0.00000e+00}
      deform[    2]={ 0.00000e+00,  0.00000e+00,  0.00000e+00}
   simulated-tempering            = false
   swapcoords                     = no
   userint1                       = 0
   userint2                       = 0
   userint3                       = 0
   userint4                       = 0
   userreal1                      = 0
   userreal2                      = 0
   userreal3                      = 0
   userreal4                      = 0
   applied-forces:
     electric-field:
       x:
         E0                       = 0
         omega                    = 0
         t0                       = 0
         sigma                    = 0
       y:
         E0                       = 0
         omega                    = 0
         t0                       = 0
         sigma                    = 0
       z:
         E0                       = 0
         omega                    = 0
         t0                       = 0
         sigma                    = 0
grpopts:
   nrdf:        8925
   ref-t:         300
   tau-t:         0.1
annealing:          No
annealing-npoints:           0
   acc:	           0           0           0
   nfreeze:           N           N           N
   energygrp-flags[  0]: 0

The -nsteps functionality is deprecated, and may be removed in a future version. Consider using gmx convert-tpr -nsteps or changing the appropriate .mdp file field.

Overriding nsteps with value passed on the command line: 5000000 steps, 1e+04 ps
Changing nstlist from 10 to 100, rlist from 1.2 to 1.2

Initializing Domain Decomposition on 2 ranks
Dynamic load balancing: locked
Minimum cell size due to atom displacement: 0.750 nm
Initial maximum distances in bonded interactions:
    two-body bonded interactions: 0.429 nm, LJ-14, atoms 42 32
  multi-body bonded interactions: 0.429 nm, Proper Dih., atoms 42 32
Minimum cell size due to bonded interactions: 0.472 nm
Maximum distance for 5 constraints, at 120 deg. angles, all-trans: 0.219 nm
Estimated maximum distance required for P-LINCS: 0.219 nm
Using 0 separate PME ranks, as there are too few total
 ranks for efficient splitting
Scaling the initial minimum size with 1/0.8 (option -dds) = 1.25
Optimizing the DD grid for 2 cells with a minimum initial size of 0.938 nm
The maximum allowed number of cells is: X 3 Y 3 Z 3
Domain decomposition grid 2 x 1 x 1, separate PME ranks 0
PME domain decomposition: 2 x 1 x 1
Domain decomposition rank 0, coordinates 0 0 0

The initial number of communication pulses is: X 1
The initial domain decomposition cell size is: X 1.76 nm

The maximum allowed distance for atoms involved in interactions is:
                 non-bonded interactions           1.200 nm
(the following are initial values, they could change due to box deformation)
            two-body bonded interactions  (-rdd)   1.200 nm
          multi-body bonded interactions  (-rdd)   1.200 nm
  atoms separated by up to 5 constraints  (-rcon)  1.765 nm

When dynamic load balancing gets turned on, these settings will change to:
The maximum number of communication pulses is: X 1
The minimum size for domain decomposition cells is 1.200 nm
The requested allowed shrink of DD cells (option -dds) is: 0.80
The allowed shrink of domain decomposition cells is: X 0.68
The maximum allowed distance for atoms involved in interactions is:
                 non-bonded interactions           1.200 nm
            two-body bonded interactions  (-rdd)   1.200 nm
          multi-body bonded interactions  (-rdd)   1.200 nm
  atoms separated by up to 5 constraints  (-rcon)  1.200 nm

Using 2 MPI processes
Using 6 OpenMP threads per MPI process

Non-default thread affinity set probably by the OpenMP library,
disabling internal thread affinity
System total charge: -0.000
Will do PME sum in reciprocal space for electrostatic interactions.

Using a Gaussian width (1/beta) of 0.384195 nm for Ewald
Potential shift: LJ r^-12: 0.000e+00 r^-6: 0.000e+00, Ewald -8.333e-06
Initialized non-bonded Ewald correction tables, spacing: 1.02e-03 size: 1176

Generated table with 1100 data points for 1-4 COUL.
Tabscale = 500 points/nm
Generated table with 1100 data points for 1-4 LJ6.
Tabscale = 500 points/nm
Generated table with 1100 data points for 1-4 LJ12.
Tabscale = 500 points/nm

Using SIMD 4x8 nonbonded short-range kernels

Using a 4x8 pair-list setup:
  updated every 100 steps, buffer 0.000 nm, rlist 1.200 nm
At tolerance 0.005 kJ/mol/ps per atom, equivalent classical 1x1 list would be:
  updated every 100 steps, buffer 0.169 nm, rlist 1.369 nm

Using Lorentz-Berthelot Lennard-Jones combination rule

Removing pbc first time

Initializing Parallel LINear Constraint Solver

The number of constraints is 1920
There are constraints between atoms in different decomposition domains,
will communicate selected coordinates each lincs iteration

Linking all bonded interactions to atoms

Intra-simulation communication will occur every 10 steps.
Center of mass motion removal mode is Linear
We have the following groups for center of mass motion removal:
  0:  rest

There are: 3616 Atoms
Atom distribution over 2 domains: av 1808 stddev 5 min 1803 max 1813

Constraining the starting coordinates (step 0)

Constraining the coordinates at t0-dt (step 0)
RMS relative constraint deviation after constraining: 2.34e-06
Initial temperature: 303.294 K

PLUMED: PLUMED is starting
PLUMED: Version: 2.5.2 (git: 07c5ebf0c) compiled on Oct  3 2019 at 15:49:54
PLUMED: Please cite this paper when using PLUMED [1]
PLUMED: For further information see the PLUMED web page at http://www.plumed.org
PLUMED: Root: /shared/ucl/apps/plumed/2.5.2/intel-2018/mkl/lib/plumed
PLUMED: For installed feature, see /shared/ucl/apps/plumed/2.5.2/intel-2018/mkl/lib/plumed/src/config/config.txt
PLUMED: Molecular dynamics engine: gromacs
PLUMED: Precision of reals: 4
PLUMED: Running over 2 nodes
PLUMED: Number of threads: 6
PLUMED: Cache line size: 512
PLUMED: Number of atoms: 3616
PLUMED: File suffix:
PLUMED: FILE: plumed.dat
PLUMED: Action TORSION
PLUMED:   with label dih_0
PLUMED:   between atoms 42 1 34 37
PLUMED:   using periodic boundary conditions
PLUMED: Action TORSION
PLUMED:   with label dih_1
PLUMED:   between atoms 40 6 31 30
PLUMED:   using periodic boundary conditions
PLUMED: Action TORSION
PLUMED:   with label dih_2
PLUMED:   between atoms 31 6 40 2
PLUMED:   using periodic boundary conditions
PLUMED: Action TORSION
PLUMED:   with label dih_3
PLUMED:   between atoms 21 8 16 17
PLUMED:   using periodic boundary conditions
PLUMED: Action TORSION
PLUMED:   with label dih_4
PLUMED:   between atoms 19 9 25 26
PLUMED:   using periodic boundary conditions
PLUMED: Action TORSION
PLUMED:   with label dih_5
PLUMED:   between atoms 11 10 26 25
PLUMED:   using periodic boundary conditions
PLUMED: Action TORSION
PLUMED:   with label dih_6
PLUMED:   between atoms 33 12 28 29
PLUMED:   using periodic boundary conditions
PLUMED: Action TORSION
PLUMED:   with label dih_7
PLUMED:   between atoms 28 12 33 36
PLUMED:   using periodic boundary conditions
PLUMED: Action TORSION
PLUMED:   with label dih_8
PLUMED:   between atoms 9 25 26 10
PLUMED:   using periodic boundary conditions
PLUMED: Action TORSION
PLUMED:   with label dih_9
PLUMED:   between atoms 28 29 30 31
PLUMED:   using periodic boundary conditions
PLUMED: Action TORSION
PLUMED:   with label dih_10
PLUMED:   between atoms 12 33 36 38
PLUMED:   using periodic boundary conditions
PLUMED: Action PRINT
PLUMED:   with label @11
PLUMED:   with stride 500
PLUMED:   with arguments dih_0 dih_1 dih_2 dih_3 dih_4 dih_5 dih_6 dih_7 dih_8 dih_9 dih_10
PLUMED:   on file COLVAR
PLUMED:   with format  %f
PLUMED: END FILE: plumed.dat
PLUMED: Timestep: 0.002000
PLUMED: KbT: 2.494339
PLUMED: Relevant bibliography:
PLUMED:   [1] Tribello, Bonomi, Branduardi, Camilloni, and Bussi, Comput. Phys. Commun. 185, 604 (2014)
PLUMED: Please read and cite where appropriate!
PLUMED: Finished setup
Started mdrun on rank 0 Mon Oct 30 17:19:05 2023

           Step           Time
              0        0.00000

   Energies (kJ/mol)
           Bond          Angle    Proper Dih.  Improper Dih.          LJ-14
    2.39229e+03    4.33544e+03    2.55008e+03    2.04381e+02    3.06066e+03
     Coulomb-14        LJ (SR)   Coulomb (SR)   Coul. recip.      Potential
   -5.45408e+03   -8.07046e+03    2.72649e+03    2.86844e+02    2.03165e+03
    Kinetic En.   Total Energy  Conserved En.    Temperature Pressure (bar)
    1.12556e+04    1.32872e+04    1.32898e+04    3.03357e+02   -8.22927e+02
    2.58067e-06

	<====  A V E R A G E S  ====>

	Statistics over 5000001 steps using 50001 frames

   Energies (kJ/mol)
           Bond          Angle    Proper Dih.  Improper Dih.          LJ-14
    2.16367e+03    4.28833e+03    2.54890e+03    2.10613e+02    3.09496e+03
     Coulomb-14        LJ (SR)   Coulomb (SR)   Coul. recip.      Potential
   -5.46230e+03   -8.34698e+03    2.72285e+03    2.71272e+02    1.49132e+03
    Kinetic En.   Total Energy  Conserved En.    Temperature Pressure (bar)
    1.11297e+04    1.26210e+04    9.94260e+03    2.99964e+02   -1.95997e-01
   Constr. rmsd
    0.00000e+00

          Box-X          Box-Y          Box-Z
    3.50070e+00    3.50070e+00    3.50070e+00

   Total Virial (kJ/mol)
    3.71441e+03   -5.80012e+00   -3.27516e+00
   -5.80014e+00    3.71398e+03   -2.65677e+00
   -3.27511e+00   -2.65679e+00    3.70690e+03

   Pressure (bar)
   -1.97391e+00    4.61807e+00    2.19127e+00
    4.61808e+00   -1.40068e+00    2.42549e+00
    2.19122e+00    2.42551e+00    2.78661e+00
